<?xml version="1.0" encoding="iso-8859-1"?>

<!--
// Copyright (C) 2011 Christoph Sommer <sommer@ccs-labs.org>
//
// Documentation for these modules is at http://veins.car2x.org/
//
// SPDX-License-Identifier: CC-BY-SA-2.0
//
// You can redistribute and/or modify this file
// under a
// Creative Commons Attribution-ShareAlike 2.0 Generic License.
//
// You should have received a copy of the license along with this
// work.  If not, see <http://creativecommons.org/licenses/by-sa/2.0/>.
-->

<!--
Based on map data Copyright (C) 2011 OpenSgrasstMap contributors <http://opensgrasstmap.org>
Licensed under the Creative Commons Attribution-ShareAlike 2.0 license <http://creativecommons.org/licenses/by-sa/2.0/>
-->

<!-- generated on Wed Nov 30 12:18:34 2011 by SUMO polyconvert Version 0.13.1
<?xml version="1.0" encoding="iso-8859-1"?>

<configuration xmlns:xsi="http://www.w3.org/2001/XMLSchema-instance" xsi:noNamespaceSchemaLocation="http://sumo.sf.net/xsd/polyconvertConfiguration.xsd">

    <input>
        <osm-files value="erlangen.osm"/>
        <osm.keep-full-type value="false"/>
        <type-file value="erlangen.polytypes.xml"/>
    </input>

    <output>
        <output-file value="erlangen.poly.xml"/>
    </output>

    <projection>
        <proj.utm value="true"/>
    </projection>

</configuration>
-->

<shapes>

    <poly id="leftside_building_16" type="building" color="0.56,0.13,0.07" fill="1" layer="4" shape="507.5,15.0 507.5,20.0 410.0,20.0 410.0,13.0"/>
    <poly id="leftside_building_17" type="building" color="0.32,0.11,0.39" fill="1" layer="4" shape="408.0,5.0 408.0,30.0 310.5,20.0 310.5,5.0"/>
    <poly id="leftside_building_48" type="building" color="0.30,0.11,0.11" fill="1" layer="4" shape="308.5,5.0 308.5,20.0 211.0,10.0 211.0,5.0"/>
    <poly id="leftside_building_49" type="building" color="0.17,0.65,0.73" fill="1" layer="4" shape="209.0,5.0 209.0,20.0 111.5,20.0 111.5,5.0"/>
    <poly id="leftside_building_50" type="building" color="0.36,0.24,0.08" fill="1" layer="4" shape="109.5,15.0 109.5,40.0 8.0,44.0 6.0,8.0"/>

    <poly id="leftside_building_18" type="building" color="0.11,0.11,0.27" fill="1" layer="4" shape="6,-20 6.9,-6 114,-6 114,-7"/>
    <poly id="leftside_building_19" type="building" color="0.13,0.27,0.83" fill="1" layer="4" shape="126,-20 126,-8 267,-8 267,-20"/>
    <poly id="leftside_building_20" type="building" color="0.21,0.00,0.83" fill="1" layer="4" shape="289,-20 289,-8 398,-8 398,-20"/>
    <poly id="leftside_building_21" type="building" color="0.29,0.18,0.29" fill="1" layer="4" shape="417,-20 417,-8 521,-8 521,-20"/>
   


    <poly id="rightside_building_15" type="building" color="0.42,0.93,0.97" fill="1" layer="4" shape="-460.0,11.1 -452.9,22.7 -445.7,17.9 -438.6,11.7 -431.4,19.4 -424.3,21.1 -417.1,22.1 -410.0,14.3 -402.9,18.2 -395.7,18.9 -388.6,18.5 -381.4,11.9 -374.3,14.5 -367.1,19.8 -360.0,14.6"/>
    <poly id="rightside_building_16" type="building" color="0.12,0.38,0.87" fill="1" layer="4" shape="-350.0,15.8 -342.9,14.3 -335.7,10.5 -328.6,7.8 -321.4,8.7 -314.3,9.3 -307.1,13.7 -300.0,23.5 -292.9,15.9 -285.7,16.6 -278.6,17.5 -271.4,16.0 -264.3,8.9 -257.1,18.0 -250.0,22.1"/>
    <poly id="rightside_building_17" type="building" color="0.13,0.20,0.98" fill="1" layer="4" shape="-240.0,26.9 -232.9,16.2 -225.7,18.5 -218.6,25.9 -211.4,15.9 -204.3,17.3 -197.1,27.4 -190.0,25.4 -182.9,28.0 -175.7,14.6 -168.6,19.4 -161.4,17.9 -154.3,21.4 -147.1,28.9 -140.0,25.5"/>
    <poly id="rightside_building_18" type="building" color="0.10,0.41,0.32" fill="1" layer="4" shape="-130.0,29.1 -122.9,30.9 -115.7,31.6 -108.6,23.6 -101.4,26.0 -94.3,31.3 -87.1,23.6 -80.0,20.1 -72.9,31.6 -65.7,22.5 -58.6,28.4 -51.4,25.3 -44.3,25.5 -37.1,26.8 -30.0,25.8"/>


    <poly id="rightside_building_35" type="building" color="0.39,0.25,0.60" fill="1" layer="4" shape="-460.0,-15.7 -452.9,-24.2 -445.7,-23.0 -438.6,-17.5 -431.4,-23.0 -424.3,-11.2 -417.1,-9.5 -410.0,-21.4 -402.9,-18.5 -395.7,-10.8 -388.6,-10.9 -381.4,-12.8 -374.3,-20.8 -367.1,-13.3 -360.0,-9.5"/>
    <poly id="rightside_building_36" type="building" color="0.14,0.68,0.53" fill="1" layer="4" shape="-350.0,-23.7 -342.9,-20.3 -335.7,-22.0 -328.6,-12.3 -321.4,-22.1 -314.3,-13.3 -307.1,-21.2 -300.0,-21.7 -292.9,-10.4 -285.7,-21.3 -278.6,-23.3 -271.4,-20.1 -264.3,-17.5 -257.1,-22.4 -250.0,-13.9"/>
    <poly id="rightside_building_37" type="building" color="0.37,0.81,0.68" fill="1" layer="4" shape="-240.0,-26.4 -232.9,-19.2 -225.7,-26.3 -218.6,-17.2 -211.4,-24.2 -204.3,-19.1 -197.1,-21.7 -190.0,-16.3 -182.9,-31.0 -175.7,-18.1 -168.6,-29.0 -161.4,-26.5 -154.3,-26.8 -147.1,-26.9 -140.0,-22.1"/>
    <poly id="rightside_building_38" type="building" color="0.17,0.79,0.56" fill="1" layer="4" shape="-130.0,-8.0 -122.9,-14.4 -115.7,-12.2 -108.6,-12.4 -101.4,-11.6 -94.3,-8.5 -87.1,-22.5 -80.0,-10.5 -72.9,-22.5 -65.7,-9.5 -58.6,-19.7 -51.4,-11.9 -44.3,-11.7 -37.1,-22.6 -30.0,-9.4"/>
    <poly id="rightside_building_39" type="building" color="0.17,0.89,0.56" fill="1" layer="4" shape="-120.0,-6.0 -22.9,-8.4 -115.7,-12.2 -108.6,-12.4 -101.4,-11.6 -94.3,-8.5 -87.1,-22.5 -80.0,-10.5 -72.9,-22.5 -65.7,-9.5 -58.6,-19.7 -51.4,-11.9 -44.3,-11.7 -37.1,-22.6 -10.0,-5.4"/>
    <poly id="rightside_building_40" type="building" color="0.17,0.99,0.56" fill="1" layer="4" shape="-80.0,-18.0 -12.9,-10.4 -115.7,-12.2 -108.6,-12.4 -101.4,-11.6 -94.3,-8.5 -87.1,-22.5 -80.0,-10.5 -72.9,-22.5 -65.7,-9.5 -58.6,-19.7 -51.4,-11.9 -44.3,-11.7 -37.1,-22.6 -15.0,-8.4"/>
    <poi id="tree_1" x="-10" y="5" type="building" color="0.0,1.0,0.0" layer="2" imgFile="tree.png"/>
    <poi id="tree_2" x="-11" y="7" type="building" color="0.0,1.0,0.0" layer="2" imgFile="tree.png"/>
    <poi id="tree_3" x="-15" y="-5" type="building" color="0.0,1.0,0.0" layer="2" imgFile="tree.png"/>

</shapes>
